/*--------------------------------*- C++ -*----------------------------------*\
  =========                 |
  \\      /  F ield         | OpenFOAM: The Open Source CFD Toolbox
   \\    /   O peration     | Website:  https://openfoam.org
    \\  /    A nd           | Version:  10
     \\/     M anipulation  |
\*---------------------------------------------------------------------------*/
FoamFile
{
    format      binary;
    class       polyBoundaryMesh;
    location    "constant/fluid/polyMesh";
    object      boundary;
}
// * * * * * * * * * * * * * * * * * * * * * * * * * * * * * * * * * * * * * //

4
(
    airInlet
    {
        type            patch;
        nFaces          3600;
        startFace       747085;
    }
    airOutlet
    {
        type            patch;
        nFaces          3600;
        startFace       750685;
    }
    airWalls
    {
        type            wall;
        inGroups        List<word> 1(wall);
        nFaces          14400;
        startFace       754285;
    }
    fluid_to_solid
    {
        type            mappedWall;
        inGroups        List<word> 1(wall);
        nFaces          13162;
        startFace       768685;
        sampleMode      nearestPatchFace;
        sampleRegion    solid;
        samplePatch     solid_to_fluid;
    }
)

// ************************************************************************* //
